%%%%%%%%%%%%%%%%%%%%%%%%%%%%%%%%%%%%%%%%%%%%%%%%%%%%%%%%%%%%%%%%%%%%%%%%%%%%%%%%
% SU2 configuration file                                                       %
% Case description: Linear Thermo-Elasticity in Vertical Cantilever            %
% Author: Vaishnavi Wani                                                       %
% Institution: University of Stuttgart                                         %
% Date: 22-01-2025                                                             %
% File Version: 8.1.0 "Harrier"                                                %
%%%%%%%%%%%%%%%%%%%%%%%%%%%%%%%%%%%%%%%%%%%%%%%%%%%%%%%%%%%%%%%%%%%%%%%%%%%%%%%%
%%%%%%%%%%%%%%%%%%%%%%%
% SOLVER TYPE
%%%%%%%%%%%%%%%%%%%%%%%   
          
SOLVER = ELASTICITY
WEAKLY_COUPLED_HEAT_EQUATION = YES
%%%%%%%%%%%%%%%%%%%%%%%
% STRUCTURAL PROPERTIES
%%%%%%%%%%%%%%%%%%%%%%%
GEOMETRIC_CONDITIONS = SMALL_DEFORMATIONS
MATERIAL_MODEL = LINEAR_ELASTIC
ELASTICITY_MODULUS = 5.0E9
POISSON_RATIO = 0.35
FORMULATION_ELASTICITY_2D = PLANE_STRESS
%%%%%%%%%%%%%%%%%%%%%%%
% INPUT
%%%%%%%%%%%%%%%%%%%%%%%
MESH_FORMAT = SU2
MESH_FILENAME = mesh_cantilever.su2
%%%%%%%%%%%%%%%%%%%%%%%
% BOUNDARY CONDITIONS
%%%%%%%%%%%%%%%%%%%%%%%
MARKER_CLAMPED = ( clamped )
MARKER_LOAD = ( left, 2.0, 1000, 1, 0, 0)
MARKER_PRESSURE = ( upper, 0, right, 0) 
MARKER_ISOTHERMAL = ( left_thermal, 300.0, right_thermal, 300.0 )
%%%%%%%%%%%%%%%%%%%%%%%
% FREESTREAM PROPERTIES
%%%%%%%%%%%%%%%%%%%%%%%
FREESTREAM_TEMPERATURE = 310.0
%%%%%%%%%%%%%%%%%%%%%%%
% LINEAR SOLVER
%%%%%%%%%%%%%%%%%%%%%%%
LINEAR_SOLVER = CONJUGATE_GRADIENT
LINEAR_SOLVER_PREC = ILU
LINEAR_SOLVER_ERROR = 1E-8
LINEAR_SOLVER_ITER = 1000
%%%%%%%%%%%%%%%%%%%%%%%
% OUTPUT
%%%%%%%%%%%%%%%%%%%%%%%
SCREEN_OUTPUT = (INNER_ITER, RMS_DISP_X, RMS_DISP_Y, RMS_TEMPERATURE, VMS)
TABULAR_FORMAT = CSV
OUTPUT_FILES =(RESTART, PARAVIEW)
CONV_FILENAME = history
VOLUME_FILENAME = linear_elastic
RESTART_FILENAME = restart_linear_elastic
